ELEMENTS
O  H  C  N   E
END
SPECIES
CH3     CH4     H         OH     H2O     O     HCOp    NO   N
H2      O2      CH2O      CO     CO2     CH    H3Op    N2   NO2
E	CH2	
!CH(S)	C2H3Op	C2H2	CH3p	C3H3p	C
END
!THERMO
! Insert GRI-Mech thermodynamics here or use in default file
!END
REACTIONS
!!!!!!!!!!!!!!!!!!!!!!!!!!!!!!!!!!!!!!!!!!!!!!!!!!!!!!!!!!!!!!!!!!!!!!!!!!!!!!!!!!!!!!!!!!!
!!!!!!!!!31 react.Jing Hu et al. (Experimental Thermal and Fluid Science 21, 200)124-133!!!
!!!!!!!!!M coefficients taken from GRI-Mech 3.0!!!!!!!!!!!!!!!!!!!!!!!!!!!!!!!!!!!!!!!!!!!!
!!!!!!!!!!!!!!!!!!!!!!!!!!!!!!!!!!!!!!!!!!!!!!!!!!!!!!!!!!!!!!!!!!!!!!!!!!!!!!!!!!!!!!!!!!!
CH4<=>CH3+H				4.23E+15     .000        108.69E+3
CH4+OH<=>CH3+H2O	                2.00E+14     .000          8.41E+3
CH4+O<=>CH3+OH          		3.48E+13     .000          8.38E+3
CH4+H<=>CH3+H2                      	4.35E+14     .000         13.74E+3
CH3+O2<=>CH2O+OH                     	5.29E+11     .000          1.70E+3
CH2O+OH<=>CO+H2O+H                   	5.87E+14     .000          4.88E+3
CO+OH=>CO2+H                        	1.30E+12     .000          1.53E+3
CO2+H=>CO+OH                        	1.45E+14     .000         23.76E+3
O2+H=>OH+O                          	2.24E+14     .000         16.80E+3
OH+O=>O2+H                          	1.71E+13     .000          0.87E+3
O+H2=>OH+H                          	1.74E+13     .000          9.45E+3
OH+H=>O+H2                          	7.70E+12     .000          7.58E+3
O+H2O=>2OH                          	5.75E+13     .000         18.10E+3
2OH=>O+H2O                          	5.38E+12     .000          1.05E+3
OH+H2=>H2O+H                        	2.19E+13     .000          5.15E+3
H2O+H=>H2+OH                        	8.41E+13     .000         20.10E+3
H+OH+M<=>H2O+M                    	2.00E+19   -1.000           .00
H2/ .73/ H2O/3.65/ CH4/2.00/ 
O+O+M<=>O2+M                        	8.90E+14   -0.500           .00
H2/ 2.40/ H2O/15.40/ CH4/ 2.00/ CO/ 1.75/ CO2/ 3.60/
H+H+M<=>H2+M				1.00E+18   -1.000           .00	
H2/ .00/ H2O/ .00/ CH4/2.00/ CO2/ .00/ 		
CH3+O<=>CH+H2O				2.80E+08     .000	    .00
CH+O<=>HCOp+E				5.75E+11     .000          6.00E+3
HCOp+H2O<=>CO+H3Op			5.02E+17     .000 	  24.00E+3
H3Op+E<=>H2O+H				1.44E+17     .000           .00
CH+O2<=>CO+OH				6.00E+10     .000           .00
!!!!!!!!!!!!!!!!!!!!!!!!!!!!!!!!!!!!!!!!!!!!!!!!!!!!!!!!!!!!!!!!!!!!!!!!!!!!!!!!!!!!!!!!!!!
!!!!!!!!!11 react.Pedersen and Brown (Combustion and Flame 94 (1993) 433-448)!!!!!!!!!!!!!!
!!!!!!!!!!!!!!!!!!!!!!!!!!!!!!!!!!!!!!!!!!!!!!!!!!!!!!!!!!!!!!!!!!!!!!!!!!!!!!!!!!!!!!!!!!!
!CH+O<=>HCOp+E				2.52E+11     .000       1700.00
!HCOp+H2O<=>CO+H3Op			1.00E+16   -0.100           .00
!H3Op+E<=>H2O+H				2.29E+18   -0.500           .00
!CH(S)+O<=>HCOp+E			5.04E+14     .000       1700.00
!H3Op+C2H2<=>C2H3Op+H2			8.39E+15     .000           .00
!HCOp+CH2<=>CH3p+CO			5.62E+14     .000           .00
!H3Op+CH2<=>CH3p+H2O			6.17E+14     .000           .00 
!CH3p+C2H2<=>C3H3p+H2			7.24E+14     .000	    .00		
!C3H3p+H2O<=>C2H3Op+CH2			7.24E+14     .000           .00
!CH3p+CO2<=>C2H3Op+O			7.24E+14     .000           .00
!CH3p+E<=>CH2+H				2.29E+18   -0.500           .00
END
